38
Ar Ar -1.784122956118084 -173.9284209204785
Ar   0   0    0
Ar    4		0	0		 
Ar    0    	4    	0
Ar    0   	0   	4
Ar   -4    	0    	0
Ar    0    	-4  	0
Ar    0    	0   	-4
Ar    4    4   0
Ar    4   0    4
Ar   0   4    4
Ar    -4   -4   0
Ar   -4    0   -4
Ar   0   -4   -4
Ar   4	 -4   0
Ar   4	 0    -4
Ar   0	 4    -4
Ar   -4	 4    0
Ar   -4	 0    4
Ar   0	 -4   4
Ar   4    4    4
Ar    -4    -4   -4
Ar    4   -4   -4
Ar   -4    -4    4
Ar   -4   4    -4
Ar    4   -4   4
Ar    -4   4   4
Ar   4   4  -4
Ar    8    0   0
Ar   0    8   0
Ar   0    0    8
Ar   -8    0    0
Ar   0    -8   0
Ar   0    0   -8
Ar   4    8    0
Ar   4   0   8
Ar    0    4    8
Ar    -4   -8	0
Ar    -4   0	-8

