38
Ar	Ar	-1.76623229870544	-172.237562755683
Ar	-1.18131785196	-9.37004683578	9.8735411537
Ar	-1.12948716576	-4.32022373373	8.72251005875
Ar	-1.41312963336	-4.17585266925	4.90152795324
Ar	-4.31951524421	-4.74019837141	7.06032440637
Ar	-8.30912249744	-8.99549444757	9.46455044706
Ar	-6.44530574037	-7.42186041637	12.3812771989
Ar	0.664829367179	-10.1793661194	6.59947051332
Ar	-8.6983380689	-9.03430760102	5.64714184837
Ar	0.405788266485	-0.957259367745	8.78410733169
Ar	-4.36145581882	-2.92773412355	10.2445322909
Ar	-4.80875914741	-10.1874237633	10.2969262517
Ar	-6.6705624545	-11.7387406883	7.39784171842
Ar	0.621345409035	-9.69742809183	13.1334490415
Ar	1.42003638841	-7.03886214451	8.53032695435
Ar	-5.37625626624	-10.2370683149	4.14956286607
Ar	-3.65601329744	-6.65826519501	10.0733357809
Ar	-7.15627820669	-5.40725982803	9.28153363244
Ar	-2.92380546898	-1.36862198176	7.04289613477
Ar	3.21998613128	-7.27517646086	11.8128682646
Ar	1.90294070485	-3.7790708301	6.65772113202
Ar	-4.94301536792	-2.85361608613	4.01228572123
Ar	2.39867210909	-10.4498259949	9.91254887726
Ar	-3.64178585734	-4.93461842646	13.3472727069
Ar	-4.20795202048	-6.65537837532	3.93852929561
Ar	-2.14435325398	-12.1511156516	12.1804854122
Ar	-6.78090297798	-2.07558086831	7.34293533261
Ar	-1.87046647644	-7.41414293045	6.8375389808
Ar	2.19044341405	-3.87738538337	10.4510363521
Ar	1.12293455248	-6.9516733878	4.71256938397
Ar	-2.97463659611	-8.63866651004	13.1949695387
Ar	-7.52120784765	-5.44737039812	5.45879105711
Ar	-1.6805853279	-9.43891538198	3.74657387823
Ar	-5.46919178689	-8.1703464445	7.2271986864
Ar	-4.05043349332	-13.7253868227	9.30773436831
Ar	-0.394160330354	-6.27085601153	11.8180435615
Ar	-1.0299255343	-2.53749694977	11.9727087047
Ar	-0.367026554843	-12.9035135531	8.9595852471
Ar	-2.99456242954	-10.955429895	7.00920964378
